/*--------------------------------*- C++ -*----------------------------------*\
  =========                 |
  \\      /  F ield         | OpenFOAM: The Open Source CFD Toolbox
   \\    /   O peration     | Website:  https://openfoam.org
    \\  /    A nd           | Version:  10
     \\/     M anipulation  |
\*---------------------------------------------------------------------------*/
FoamFile
{
    format      ascii;
    class       extendedFeatureEdgeMesh;
    location    "constant/extendedFeatureEdgeMesh";
    object      block.extendedFeatureEdgeMesh;
}
// * * * * * * * * * * * * * * * * * * * * * * * * * * * * * * * * * * * * * //

// points
8((4 0.5 0) (4 -0.5 0) (5.5 -0.5 0.3) (5.5 0.5 0.3) (5.5 0.5 0) (5.5 -0.5 0) (5.39688 0.5 0.3) (5.39688 -0.5 0.3))
// edges

11
(
(0 1)
(6 0)
(1 7)
(7 2)
(2 3)
(3 6)
(4 3)
(5 4)
(2 5)
(0 4)
(5 1)
)

// concaveStart mixedStart nonFeatureStart
6 6 6
// internalStart flatStart openStart multipleStart
11 11 11 11
// normals

12
(
(-0.209976 0 0.977706)
(0 0 -1)
(0 1 0)
(-0.209976 0 0.977706)
(0 -1 0)
(0 0 1)
(0 -1 0)
(0 0 1)
(1 0 -0)
(0 1 0)
(1 0 0)
(0 0 -1)
)

// normal volume types

12
(
0
0
0
0
0
0
0
0
0
0
0
0
)

// normalDirections

11
(
2(1 -1)
2(1 -1)
2(1 -1)
2(1 -1)
2(1 -1)
2(1 -1)
2(1 -1)
2(1 -1)
2(1 -1)
2(1 -1)
2(1 -1)
)

// edgeNormals

11
(
2(0 1)
2(0 2)
2(3 4)
2(5 6)
2(7 8)
2(7 9)
2(8 9)
2(10 11)
2(10 6)
2(11 2)
2(1 4)
)

// featurePointNormals

6
(
3(0 1 2)
3(0 1 4)
3(5 6 8)
3(7 8 9)
3(8 9 11)
3(10 11 6)
)

// featurePointEdges

6
(
3(0 9 1)
3(2 10 0)
3(4 8 3)
3(4 6 5)
3(7 9 6)
3(7 10 8)
)

// regionEdges
0()


// ************************************************************************* //
