/*--------------------------------*- C++ -*----------------------------------*\
| =========                 |                                                 |
| \\      /  F ield         | OpenFOAM: The Open Source CFD Toolbox           |
\*---------------------------------------------------------------------------*/

FoamFile
{
    version         2.0;
    format          ascii;
    class           dictionary;
    object          blockMeshDict;
}

scale 1;

vertices
(
    // ============================================================
    // Back plane: y = -0.02
    // x = 0.0, 5.0, 5.4, 5.5, 6.0
    // ============================================================

    (0.0  -0.02  0.0)     // 0
    (4.5  -0.02  0.0)     // 1
    (5.4  -0.02  0.2)     // 2
    (5.5  -0.02  0.0)     // 3
    (6.0  -0.02  0.0)     // 4

    (0.0  -0.02  0.65)    // 5
    (4.5  -0.02  0.65)    // 6
    (5.4  -0.02  0.65)    // 7
    (5.5  -0.02  0.65)    // 8
    (6.0  -0.02  0.65)    // 9

    (0.0  -0.02  1.0)     // 10
    (4.5  -0.02  1.0)     // 11
    (5.4  -0.02  1.0)     // 12
    (5.5  -0.02  1.0)     // 13
    (6.0  -0.02  1.0)     // 14


    // ============================================================
    // Front plane: y = 0
    // x = 0.0, 5.0, 5.4, 5.5, 6.0
    // ============================================================

    (0.0   0.0   0.0)     // 15
    (4.5   0.0   0.0)     // 16
    (5.4   0.0   0.2)     // 17
    (5.5   0.0   0.0)     // 18
    (6.0   0.0   0.0)     // 19

    (0.0   0.0   0.65)    // 20
    (4.5   0.0   0.65)    // 21
    (5.4   0.0   0.65)    // 22
    (5.5   0.0   0.65)    // 23
    (6.0   0.0   0.65)    // 24

    (0.0   0.0   1.0)     // 25
    (4.5   0.0   1.0)     // 26
    (5.4   0.0   1.0)     // 27
    (5.5   0.0   1.0)     // 28
    (6.0   0.0   1.0)     // 29
);

blocks
(
    // ============================================================
    // Region 1: x = 0.0 to 5.0
    // Normal mesh
    // ============================================================

    // Lower-left region
    hex (0 1 16 15 5 6 21 20)        (100 1 12) simpleGrading (1 1 1)

    // Upper-left region
    hex (5 6 21 20 10 11 26 25)      (100 1 8)  simpleGrading (1 1 1)


    // ============================================================
    // Region 2: x = 5.0 to 5.4
    // New in-between refined region
    // ============================================================

    // Lower in-between region
    hex (1 2 17 16 6 7 22 21)        (16 1 12) simpleGrading (1 1 1)

    // Upper in-between region
    hex (6 7 22 21 11 12 27 26)      (16 1 8)  simpleGrading (1 1 1)


    // ============================================================
    // Region 3: x = 5.4 to 5.5
    // Region above rectangular wall / caisson gap
    // ============================================================

    hex (7 8 23 22 12 13 28 27)      (2 1 8) simpleGrading (1 1 1)


    // ============================================================
    // Region 4: x = 5.5 to 6.0
    // Right side
    // ============================================================

    // Right lower region
    hex (3 4 19 18 8 9 24 23)        (10 1 12) simpleGrading (1 1 1)

    // Right upper region
    hex (8 9 24 23 13 14 29 28)      (10 1 8)  simpleGrading (1 1 1)
);

edges
(
);

patches
(
    patch inlet
    (
        (0 15 20 5)
        (5 20 25 10)
    )

    patch outlet
    (
        (4 19 24 9)
        (9 24 29 14)
    )

    wall bottom
    (
        // bottom before caisson
        (0 1 16 15)
        (1 2 17 16)

        // bottom after caisson
        (3 4 19 18)
    )

    wall caisson
    (
        // Left vertical wall of obstacle at x = 5.4
        (2 17 22 7)

        // Top wall of obstacle from x = 5.4 to 5.5
        (7 8 23 22)

        // Right vertical wall of obstacle at x = 5.5
        (3 18 23 8)
    )

    patch atmosphere
    (
        (10 11 26 25)
        (11 12 27 26)
        (12 13 28 27)
        (13 14 29 28)
    )

    empty frontAndBack
    (
        // Back faces: y = -0.02
        (0 1 6 5)
        (1 2 7 6)
        (5 6 11 10)
        (6 7 12 11)
        (7 8 13 12)
        (3 4 9 8)
        (8 9 14 13)

        // Front faces: y = 0
        (15 16 21 20)
        (16 17 22 21)
        (20 21 26 25)
        (21 22 27 26)
        (22 23 28 27)
        (18 19 24 23)
        (23 24 29 28)
    )
);

mergePatchPairs
(
);

// ************************************************************************* //
