/*--------------------------------*- C++ -*----------------------------------*\
| =========                 |                                                 |
| \\      /  F ield         | OpenFOAM: The Open Source CFD Toolbox           |
|  \\    /   O peration     | Version:  1.7.1                                 |
|   \\  /    A nd           | Web:      www.OpenFOAM.com                      |
|    \\/     M anipulation  |                                                 |
\*---------------------------------------------------------------------------*/
FoamFile
{
    version     2.0;
    format      ascii;
    class       dictionary;
    object      snappyHexMeshDict;
}
// * * * * * * * * * * * * * * * * * * * * * * * * * * * * * * * * * * * * * //

castellatedMesh true;
snap            true;
addLayers       false;

geometry
{
    block.stl
    {
        type triSurfaceMesh;
        name block;
    }
};

castellatedMeshControls
{
    maxLocalCells 10000000;
    maxGlobalCells 10000000;

    minRefinementCells 10;

    maxLoadUnbalance 0.10;

    nCellsBetweenLevels 2;

    features
    (
        {
            file "block.eMesh";
            level 1;
        }
    );

    refinementSurfaces
    {
        block
        {
            level ( 1 2 );
        }
    }

    resolveFeatureAngle 65;

    refinementRegions
    {
        block
        {
            mode distance;

            levels
            (
                (0.01 2)
                (0.025 1)
            );
        }
    }

    locationInMesh (0.1 -0.01 0.1);

    allowFreeStandingZoneFaces true;
}

snapControls
{
    nSmoothPatch 3;

    tolerance 4.0;

    nSolveIter 30;

    nRelaxIter 5;
}

addLayersControls
{
    relativeSizes true;

    layers
    {
        //batimetria_patch0
        //{
        //    nSurfaceLayers 2; //was 1 //was 4
        //}
    }

    expansionRatio 1.0;

    finalLayerThickness 0.3;

    minThickness 0.1;

    nGrow 1;

    featureAngle 30;

    nRelaxIter 3;

    nSmoothSurfaceNormals 1;

    nSmoothNormals 3;

    nSmoothThickness 10;

    maxFaceThicknessRatio 0.5;

    maxThicknessToMedialRatio 0.3;

    minMedianAxisAngle 130;

    nBufferCellsNoExtrude 0;

    nLayerIter 50;
}

meshQualityControls
{
    maxNonOrtho 65;

    maxBoundarySkewness 20;
    maxInternalSkewness 4;

    maxConcave 80;

    minFlatness 0.5;

    minVol 1e-13;

    minTetQuality 1e-30;

    minArea -1;

    minTwist 0.02;

    minDeterminant 0.001;

    minFaceWeight 0.02;

    minVolRatio 0.01;

    minTriangleTwist -1;

    nSmoothScale 4;

    errorReduction 0.75;
}

debug 0;

mergeTolerance 1E-6;

// ************************************************************************* //